9

 C        0.000000000   0.000000000  7.527015209   
 C        -0.000001892  2.155826914  11.411234708  
 C        1.867001820   1.077911819  3.642794365   
 H	   0.81997389   2.58973489  11.94439846
 H        1.04702604    0.644003839  3.109630615   
 O	  -1.09209573,   1.57792125,  12.13113476
 #O        2.95909566    1.655817479  2.922894315   
 Sc      -0.000001892  2.155826914  5.823428451   
 Sc       1.867001820   1.077911819  9.230600622   
